%chk=testtmp.chk
# hf/sto-3g 
 
gjf for external atom list
 
  -1   2
H       11.723007654656      4.320958215239      3.662717964852
C       12.734999994013      3.903999998165      3.446999998380
C       13.858999993484      4.726999997778      4.077999998083
C       15.183999992861      4.252999998000      3.473999998367
C       16.243999992363      5.252999997530      3.746999998238
N       16.430999992275      5.402999997460      5.213999997549
H       12.786999993988      3.001999998588      3.800999998213
H       12.873999993948      3.891999998170      2.486999998831
H       13.735999993542      5.668999997335      3.880999998175
H       13.876999993476      4.588999997842      5.037999997632
H       15.441999992740      3.407999998398      3.872999998179
H       15.088999992906      4.152999998048      2.513999998818
H       17.080999991970      4.958999997668      3.353999998423
H       15.987999992483      6.111999997127      3.374999998413
H       15.728999992605      5.819999997264      5.568999997382
H       16.512999992237      4.601999997836      5.593999997370
H       17.163999991931      5.878999997236      5.380999997470
H       -6.041146689031      3.095268807618      5.605003400011
N       -6.608999996893      2.469999998839      5.221999997545
C       -7.839999996314      2.866999998652      4.570999997851
C       -9.109999995717      2.360999998890      5.309999997503
O       -9.027999995755      1.515999999287      6.222999997074
C       -7.885999996292      2.277999998929      3.151999998518
C       -6.802999996802      2.650999998754      2.159999998985
C       -5.752999997295      1.579999999257      2.184999998973
C       -7.398999996521      2.787999998689      0.797999999625
O      -10.253999995179      2.774999998695      5.029999997635
H       -6.464999996960      1.621999999238      5.216999997547
H       -7.855999996306      3.835999998197      4.555999997858
H       -7.855999996306      1.312999999383      3.237999998478
H       -8.726999995897      2.549999998801      2.752999998706
H       -6.392999996994      3.499999998355      2.387999998877
H       -5.005999997647      1.855999999128      1.630999999233
H       -5.455999997435      1.449999999318      3.098999998543
H       -6.132999997117      0.756999999644      1.839999999135
H       -6.686999996856      2.921999998626      0.153999999928
H       -7.889999996290      1.978999999069      0.585999999724
H       -7.998999996239      3.549999998331      0.790999999628
 
 
